Version 4
SHEET 1 1204 776
WIRE 320 -256 -640 -256
WIRE -816 -208 -1024 -208
WIRE -640 -208 -640 -256
WIRE -640 -208 -816 -208
WIRE -192 -208 -640 -208
WIRE -192 -144 -192 -208
WIRE 320 -96 320 -256
WIRE 448 -96 320 -96
WIRE 720 -96 576 -96
WIRE 880 -96 784 -96
WIRE 1008 -96 880 -96
WIRE 1136 -96 1008 -96
WIRE -1024 -80 -1024 -144
WIRE -960 -80 -1024 -80
WIRE -816 -80 -816 -144
WIRE -816 -80 -880 -80
WIRE 880 -80 880 -96
WIRE -304 -64 -352 -64
WIRE -528 -32 -688 -32
WIRE -192 -32 -192 -64
WIRE -192 -32 -352 -32
WIRE -112 -32 -192 -32
WIRE -48 -32 -112 -32
WIRE 48 -32 32 -32
WIRE 112 -32 96 -32
WIRE 240 -32 112 -32
WIRE -528 0 -656 0
WIRE -208 0 -352 0
WIRE 448 0 288 0
WIRE 784 0 576 0
WIRE 880 0 880 -16
WIRE 880 0 784 0
WIRE 1136 0 1136 -16
WIRE 1136 0 880 0
WIRE 112 16 112 -32
WIRE -1024 32 -1024 -80
WIRE -816 32 -816 -80
WIRE -528 32 -608 32
WIRE 240 32 240 -32
WIRE 448 32 240 32
WIRE -208 112 -208 0
WIRE 112 112 112 96
WIRE 112 112 -208 112
WIRE 112 128 112 112
WIRE 784 160 784 0
WIRE 784 160 656 160
WIRE 896 160 784 160
WIRE -1024 176 -1024 96
WIRE -880 176 -1024 176
WIRE -816 176 -816 96
WIRE -816 176 -880 176
WIRE 448 176 448 128
WIRE 288 192 288 0
WIRE -880 208 -880 176
WIRE 896 224 896 160
WIRE 656 256 656 160
WIRE -304 272 -304 -64
WIRE 240 272 -304 272
WIRE -656 336 -656 0
WIRE 32 336 -656 336
WIRE 288 336 288 288
WIRE 288 336 112 336
WIRE 288 352 288 336
WIRE 656 384 656 320
WIRE 688 384 656 384
WIRE 816 384 752 384
WIRE 896 384 896 304
WIRE 288 464 288 432
WIRE 656 480 656 384
WIRE 656 480 608 480
WIRE 752 480 656 480
WIRE 896 480 896 384
WIRE 896 480 816 480
WIRE 416 496 304 496
WIRE 304 512 304 496
WIRE -688 592 -688 -32
WIRE 416 592 -688 592
WIRE 640 592 608 592
WIRE 640 640 640 592
WIRE 896 640 896 480
WIRE 784 720 640 720
WIRE 896 720 784 720
WIRE 784 768 784 720
WIRE 1008 768 1008 -96
WIRE 1008 768 784 768
FLAG -592 -64 0
FLAG -608 32 0
FLAG 112 208 0
FLAG -112 32 0
FLAG 448 176 0
FLAG 288 464 0
FLAG -640 -144 0
FLAG -880 208 0
FLAG 304 512 0
SYMBOL UCC28600_0 -448 -16 R0
SYMATTR InstName U3
SYMBOL diode -1008 -144 R180
WINDOW 0 24 64 Left 2
WINDOW 3 24 0 Left 2
SYMATTR InstName D1
SYMATTR Value MURS120
SYMBOL diode -1008 96 R180
WINDOW 0 24 64 Left 2
WINDOW 3 24 0 Left 2
SYMATTR InstName D2
SYMATTR Value MURS120
SYMBOL diode -800 -144 R180
WINDOW 0 24 64 Left 2
WINDOW 3 24 0 Left 2
SYMATTR InstName D3
SYMATTR Value MURS120
SYMBOL diode -800 96 R180
WINDOW 0 24 64 Left 2
WINDOW 3 24 0 Left 2
SYMATTR InstName D4
SYMATTR Value MURS120
SYMBOL voltage -864 -80 R90
WINDOW 0 -23 -4 VRight 2
WINDOW 3 49 -20 VRight 2
WINDOW 123 0 0 Left 2
WINDOW 39 0 0 Left 2
SYMATTR InstName V1
SYMATTR Value SINE(0 230 50)
SYMBOL 760871131_B 448 -96 R0
SYMATTR InstName U1
SYMBOL res -208 -160 R0
SYMATTR InstName R1
SYMBOL cap -528 -80 R90
WINDOW 0 0 32 VBottom 2
WINDOW 3 32 32 VTop 2
SYMATTR InstName C1
SYMBOL res 48 -48 R90
WINDOW 0 0 56 VBottom 2
WINDOW 3 32 56 VTop 2
SYMATTR InstName R2
SYMBOL res 96 0 R0
SYMATTR InstName R3
SYMBOL res 96 112 R0
SYMATTR InstName R4
SYMBOL diode 112 -48 R90
WINDOW 0 0 32 VBottom 2
WINDOW 3 32 32 VTop 2
SYMATTR InstName D5
SYMBOL cap -128 -32 R0
SYMATTR InstName C2
SYMBOL nmos 240 192 R0
SYMATTR InstName M1
SYMBOL res 16 352 R270
WINDOW 0 32 56 VTop 2
WINDOW 3 0 56 VBottom 2
SYMATTR InstName R5
SYMBOL res 272 336 R0
SYMATTR InstName R6
SYMBOL cap -656 -208 R0
SYMATTR InstName C3
SYMBOL cap 864 -80 R0
SYMATTR InstName C4
SYMBOL diode 720 -80 R270
WINDOW 0 32 32 VTop 2
WINDOW 3 0 32 VBottom 2
SYMATTR InstName D6
SYMBOL res 1120 -112 R0
SYMATTR InstName R7
SYMBOL Optos\\PC817A 512 544 R180
SYMATTR InstName U2
SYMBOL res 912 736 R180
WINDOW 0 36 76 Left 2
WINDOW 3 36 40 Left 2
SYMATTR InstName R8
SYMBOL res 912 320 R180
WINDOW 0 36 76 Left 2
WINDOW 3 36 40 Left 2
SYMATTR InstName R9
SYMBOL res 656 736 R180
WINDOW 0 36 76 Left 2
WINDOW 3 36 40 Left 2
SYMATTR InstName R10
SYMBOL res 800 400 R270
WINDOW 0 32 56 VTop 2
WINDOW 3 0 56 VBottom 2
SYMATTR InstName R11
SYMBOL cap 752 496 R270
WINDOW 0 32 32 VTop 2
WINDOW 3 0 32 VBottom 2
SYMATTR InstName C5
SYMBOL cap 688 400 R270
WINDOW 0 32 32 VTop 2
WINDOW 3 0 32 VBottom 2
SYMATTR InstName C6
SYMBOL zener 640 256 R0
SYMATTR InstName D7
